# DIS package for  MODFLOW-NWT, generated by Flopy.
         7       124        70         1         4         2
  0  0  0  0  0  0  0
INTERNAL               1  (70E15.6) -1 #delr                          
   1.000000E+03   1.000000E+03   1.000000E+03   1.000000E+03   1.000000E+03   1.000000E+03   1.000000E+03   1.000000E+03   1.000000E+03   1.000000E+03   1.000000E+03   1.000000E+03   1.000000E+03   1.000000E+03   1.000000E+03   1.000000E+03   1.000000E+03   1.000000E+03   1.000000E+03   1.000000E+03   1.000000E+03   1.000000E+03   1.000000E+03   1.000000E+03   1.000000E+03   1.000000E+03   1.000000E+03   1.000000E+03   1.000000E+03   1.000000E+03   1.000000E+03   1.000000E+03   1.000000E+03   1.000000E+03   1.000000E+03   1.000000E+03   1.000000E+03   1.000000E+03   1.000000E+03   1.000000E+03   1.000000E+03   1.000000E+03   1.000000E+03   1.000000E+03   1.000000E+03   1.000000E+03   1.000000E+03   1.000000E+03   1.000000E+03   1.000000E+03   1.000000E+03   1.000000E+03   1.000000E+03   1.000000E+03   1.000000E+03   1.000000E+03   1.000000E+03   1.000000E+03   1.000000E+03   1.000000E+03   1.000000E+03   1.000000E+03   1.000000E+03   1.000000E+03   1.000000E+03   1.000000E+03   1.000000E+03   1.000000E+03   1.000000E+03   1.000000E+03
INTERNAL               1 (124E15.6) -1 #delc                          
   1.000000E+03   1.000000E+03   1.000000E+03   1.000000E+03   1.000000E+03   1.000000E+03   1.000000E+03   1.000000E+03   1.000000E+03   1.000000E+03   1.000000E+03   1.000000E+03   1.000000E+03   1.000000E+03   1.000000E+03   1.000000E+03   1.000000E+03   1.000000E+03   1.000000E+03   1.000000E+03   1.000000E+03   1.000000E+03   1.000000E+03   1.000000E+03   1.000000E+03   1.000000E+03   1.000000E+03   1.000000E+03   1.000000E+03   1.000000E+03   1.000000E+03   1.000000E+03   1.000000E+03   1.000000E+03   1.000000E+03   1.000000E+03   1.000000E+03   1.000000E+03   1.000000E+03   1.000000E+03   1.000000E+03   1.000000E+03   1.000000E+03   1.000000E+03   1.000000E+03   1.000000E+03   1.000000E+03   1.000000E+03   1.000000E+03   1.000000E+03   1.000000E+03   1.000000E+03   1.000000E+03   1.000000E+03   1.000000E+03   1.000000E+03   1.000000E+03   1.000000E+03   1.000000E+03   1.000000E+03   1.000000E+03   1.000000E+03   1.000000E+03   1.000000E+03   1.000000E+03   1.000000E+03   1.000000E+03   1.000000E+03   1.000000E+03   1.000000E+03   1.000000E+03   1.000000E+03   1.000000E+03   1.000000E+03   1.000000E+03   1.000000E+03   1.000000E+03   1.000000E+03   1.000000E+03   1.000000E+03   1.000000E+03   1.000000E+03   1.000000E+03   1.000000E+03   1.000000E+03   1.000000E+03   1.000000E+03   1.000000E+03   1.000000E+03   1.000000E+03   1.000000E+03   1.000000E+03   1.000000E+03   1.000000E+03   1.000000E+03   1.000000E+03   1.000000E+03   1.000000E+03   1.000000E+03   1.000000E+03   1.000000E+03   1.000000E+03   1.000000E+03   1.000000E+03   1.000000E+03   1.000000E+03   1.000000E+03   1.000000E+03   1.000000E+03   1.000000E+03   1.000000E+03   1.000000E+03   1.000000E+03   1.000000E+03   1.000000E+03   1.000000E+03   1.000000E+03   1.000000E+03   1.000000E+03   1.000000E+03   1.000000E+03   1.000000E+03   1.000000E+03   1.000000E+03
INTERNAL               1     (FREE) -1 #model_top                     
   0.000000E+00   0.000000E+00   0.000000E+00   0.000000E+00   0.000000E+00   0.000000E+00   0.000000E+00   0.000000E+00   0.000000E+00   0.000000E+00   0.000000E+00   0.000000E+00   0.000000E+00   0.000000E+00   0.000000E+00   0.000000E+00   0.000000E+00   0.000000E+00   0.000000E+00   0.000000E+00   0.000000E+00   0.000000E+00   0.000000E+00   0.000000E+00   0.000000E+00   0.000000E+00   0.000000E+00   0.000000E+00   0.000000E+00   0.000000E+00   0.000000E+00   0.000000E+00   0.000000E+00   0.000000E+00   0.000000E+00   0.000000E+00   0.000000E+00   0.000000E+00   0.000000E+00   0.000000E+00   0.000000E+00   0.000000E+00   0.000000E+00   0.000000E+00   0.000000E+00   0.000000E+00   0.000000E+00   0.000000E+00   0.000000E+00   0.000000E+00   0.000000E+00   0.000000E+00   0.000000E+00   0.000000E+00   0.000000E+00   0.000000E+00   0.000000E+00   0.000000E+00   0.000000E+00   0.000000E+00   0.000000E+00   0.000000E+00   0.000000E+00   0.000000E+00   0.000000E+00   0.000000E+00   0.000000E+00   0.000000E+00   0.000000E+00   0.000000E+00
   0.000000E+00   0.000000E+00   0.000000E+00   0.000000E+00   0.000000E+00   0.000000E+00   0.000000E+00   0.000000E+00   0.000000E+00   0.000000E+00   0.000000E+00   0.000000E+00   0.000000E+00   0.000000E+00   0.000000E+00   0.000000E+00   0.000000E+00   0.000000E+00   0.000000E+00   0.000000E+00   0.000000E+00   0.000000E+00   0.000000E+00   0.000000E+00   0.000000E+00   0.000000E+00   0.000000E+00   0.000000E+00   0.000000E+00   0.000000E+00   0.000000E+00   0.000000E+00   0.000000E+00   0.000000E+00   0.000000E+00   0.000000E+00   0.000000E+00   0.000000E+00   0.000000E+00   0.000000E+00   0.000000E+00   0.000000E+00   0.000000E+00   0.000000E+00   0.000000E+00   0.000000E+00   0.000000E+00   0.000000E+00   0.000000E+00   0.000000E+00   0.000000E+00   0.000000E+00   0.000000E+00   0.000000E+00   0.000000E+00   0.000000E+00   0.000000E+00   0.000000E+00   0.000000E+00   0.000000E+00   0.000000E+00   0.000000E+00   0.000000E+00   0.000000E+00   0.000000E+00   0.000000E+00   0.000000E+00   0.000000E+00   0.000000E+00   0.000000E+00
   0.000000E+00   0.000000E+00   0.000000E+00   0.000000E+00   0.000000E+00   0.000000E+00   0.000000E+00   0.000000E+00   0.000000E+00   0.000000E+00   0.000000E+00   0.000000E+00   0.000000E+00   0.000000E+00   0.000000E+00   0.000000E+00   0.000000E+00   0.000000E+00   0.000000E+00   0.000000E+00   0.000000E+00   0.000000E+00   0.000000E+00   0.000000E+00   0.000000E+00   0.000000E+00   0.000000E+00   0.000000E+00   0.000000E+00   0.000000E+00   0.000000E+00   0.000000E+00   0.000000E+00   0.000000E+00   0.000000E+00   0.000000E+00   0.000000E+00   0.000000E+00   0.000000E+00   0.000000E+00   0.000000E+00   0.000000E+00   0.000000E+00   0.000000E+00   0.000000E+00   0.000000E+00   0.000000E+00   0.000000E+00   0.000000E+00   0.000000E+00   0.000000E+00   0.000000E+00   0.000000E+00   0.000000E+00   0.000000E+00   0.000000E+00   0.000000E+00   0.000000E+00   0.000000E+00   0.000000E+00   0.000000E+00   0.000000E+00   0.000000E+00   0.000000E+00   0.000000E+00   0.000000E+00   0.000000E+00   0.000000E+00   0.000000E+00   0.000000E+00
   0.000000E+00   0.000000E+00   0.000000E+00   0.000000E+00   0.000000E+00   0.000000E+00   0.000000E+00   0.000000E+00   0.000000E+00   0.000000E+00   0.000000E+00   0.000000E+00   0.000000E+00   0.000000E+00   0.000000E+00   0.000000E+00   0.000000E+00   0.000000E+00   0.000000E+00   0.000000E+00   0.000000E+00   0.000000E+00   0.000000E+00   0.000000E+00   0.000000E+00   0.000000E+00   0.000000E+00   0.000000E+00   0.000000E+00   0.000000E+00   0.000000E+00   0.000000E+00   0.000000E+00   0.000000E+00   0.000000E+00   0.000000E+00   0.000000E+00   0.000000E+00   0.000000E+00   0.000000E+00   0.000000E+00   0.000000E+00   0.000000E+00   0.000000E+00   0.000000E+00   0.000000E+00   0.000000E+00   0.000000E+00   0.000000E+00   0.000000E+00   0.000000E+00   0.000000E+00   0.000000E+00   0.000000E+00   0.000000E+00   0.000000E+00   0.000000E+00   0.000000E+00   0.000000E+00   0.000000E+00   0.000000E+00   0.000000E+00   0.000000E+00   0.000000E+00   0.000000E+00   0.000000E+00   0.000000E+00   0.000000E+00   0.000000E+00   0.000000E+00
   0.000000E+00   0.000000E+00   0.000000E+00   0.000000E+00   0.000000E+00   0.000000E+00   0.000000E+00   0.000000E+00   0.000000E+00   0.000000E+00   0.000000E+00   0.000000E+00   0.000000E+00   0.000000E+00   0.000000E+00   0.000000E+00   0.000000E+00   0.000000E+00   0.000000E+00   0.000000E+00   0.000000E+00   0.000000E+00   0.000000E+00   0.000000E+00   0.000000E+00   0.000000E+00   0.000000E+00   0.000000E+00   0.000000E+00   0.000000E+00   0.000000E+00   0.000000E+00   0.000000E+00   0.000000E+00   0.000000E+00   0.000000E+00   0.000000E+00   0.000000E+00   0.000000E+00   0.000000E+00   0.000000E+00   0.000000E+00   0.000000E+00   0.000000E+00   0.000000E+00   0.000000E+00   0.000000E+00   0.000000E+00   0.000000E+00   0.000000E+00   0.000000E+00   0.000000E+00   0.000000E+00   0.000000E+00   0.000000E+00   0.000000E+00   0.000000E+00   0.000000E+00   0.000000E+00   0.000000E+00   0.000000E+00   0.000000E+00   0.000000E+00   0.000000E+00   0.000000E+00   0.000000E+00   0.000000E+00   0.000000E+00   0.000000E+00   0.000000E+00
   5.750000E+01   6.000000E+00   2.500000E+00   0.000000E+00   0.000000E+00   0.000000E+00   0.000000E+00   0.000000E+00   0.000000E+00   0.000000E+00   0.000000E+00   0.000000E+00   0.000000E+00   0.000000E+00   0.000000E+00   0.000000E+00   0.000000E+00   0.000000E+00   0.000000E+00   0.000000E+00   0.000000E+00   0.000000E+00   0.000000E+00   0.000000E+00   1.450000E+01   1.025000E+02   2.055000E+02   2.055000E+02   1.235000E+02   4.500000E+01   7.700000E+01   2.455000E+02   2.195000E+02   2.330000E+02   2.295000E+02   3.360000E+02   4.345000E+02   2.705000E+02   2.065000E+02   2.655000E+02   1.900000E+02   4.300000E+01   1.335000E+02   8.450000E+01   6.200000E+01   7.900000E+01   2.170000E+02   2.765000E+02   1.345000E+02   8.550000E+01   1.600000E+01   6.500000E+00   2.500000E+00   4.300000E+01   0.000000E+00   0.000000E+00   0.000000E+00   0.000000E+00   0.000000E+00   0.000000E+00   0.000000E+00   0.000000E+00   0.000000E+00   0.000000E+00   0.000000E+00   0.000000E+00   0.000000E+00   0.000000E+00   0.000000E+00   0.000000E+00
   4.300000E+01   5.500000E+00   4.500000E+00   0.000000E+00   0.000000E+00   0.000000E+00   0.000000E+00   0.000000E+00   0.000000E+00   0.000000E+00   0.000000E+00   0.000000E+00   0.000000E+00   0.000000E+00   0.000000E+00   0.000000E+00   0.000000E+00   0.000000E+00   0.000000E+00   0.000000E+00   0.000000E+00   0.000000E+00   0.000000E+00   0.000000E+00   4.000000E+00   3.300000E+01   1.270000E+02   1.395000E+02   4.700000E+01   2.200000E+01   2.245000E+02   2.475000E+02   3.155000E+02   2.315000E+02   2.715000E+02   4.220000E+02   2.530000E+02   1.755000E+02   1.745000E+02   9.000000E+01   7.350000E+01   5.200000E+01   5.950000E+01   6.200000E+01   9.500000E+01   1.355000E+02   1.895000E+02   2.400000E+02   1.915000E+02   2.650000E+01   1.150000E+01   5.000000E+00   1.050000E+01   8.800000E+01   0.000000E+00   0.000000E+00   0.000000E+00   0.000000E+00   0.000000E+00   0.000000E+00   0.000000E+00   0.000000E+00   0.000000E+00   0.000000E+00   0.000000E+00   0.000000E+00   0.000000E+00   0.000000E+00   0.000000E+00   0.000000E+00
   1.200000E+01   6.000000E+00   4.500000E+00   3.000000E+00   0.000000E+00   0.000000E+00   0.000000E+00   0.000000E+00   0.000000E+00   0.000000E+00   0.000000E+00   0.000000E+00   0.000000E+00   0.000000E+00   0.000000E+00   0.000000E+00   0.000000E+00   0.000000E+00   0.000000E+00   0.000000E+00   0.000000E+00   0.000000E+00   0.000000E+00   0.000000E+00   4.000000E+00   7.000000E+00   7.000000E+00   1.300000E+01   4.500000E+01   1.835000E+02   9.600000E+01   1.220000E+02   1.485000E+02   1.530000E+02   2.490000E+02   4.335000E+02   3.675000E+02   2.160000E+02   1.300000E+02   1.330000E+02   2.305000E+02   1.080000E+02   5.300000E+01   1.230000E+02   1.630000E+02   1.490000E+02   1.530000E+02   8.850000E+01   2.400000E+01   2.550000E+01   3.100000E+01   5.000000E+00   7.450000E+01   1.500000E+01   0.000000E+00   0.000000E+00   0.000000E+00   0.000000E+00   0.000000E+00   0.000000E+00   0.000000E+00   0.000000E+00   0.000000E+00   0.000000E+00   0.000000E+00   0.000000E+00   0.000000E+00   0.000000E+00   0.000000E+00   0.000000E+00
   2.800000E+01   2.750000E+01   4.500000E+00   3.500000E+00   1.500000E+00   0.000000E+00   0.000000E+00   0.000000E+00   0.000000E+00   0.000000E+00   0.000000E+00   0.000000E+00   0.000000E+00   0.000000E+00   0.000000E+00   0.000000E+00   0.000000E+00   0.000000E+00   0.000000E+00   0.000000E+00   0.000000E+00   0.000000E+00   3.000000E+00   0.000000E+00   3.000000E+00   2.050000E+01   3.200000E+01   1.145000E+02   1.380000E+02   6.350000E+01   1.205000E+02   1.935000E+02   2.840000E+02   2.235000E+02   2.265000E+02   3.840000E+02   4.910000E+02   4.165000E+02   3.735000E+02   2.360000E+02   2.390000E+02   8.150000E+01   7.700000E+01   1.335000E+02   2.880000E+02   1.775000E+02   1.000000E+02   6.300000E+01   1.480000E+02   3.900000E+01   1.600000E+01   8.000000E+00   6.200000E+01   6.350000E+01   0.000000E+00   0.000000E+00   0.000000E+00   0.000000E+00   0.000000E+00   0.000000E+00   0.000000E+00   0.000000E+00   0.000000E+00   0.000000E+00   0.000000E+00   0.000000E+00   0.000000E+00   0.000000E+00   0.000000E+00   0.000000E+00
   4.450000E+01   2.500000E+01   5.000000E+00   4.000000E+00   5.000000E+00   0.000000E+00   0.000000E+00   0.000000E+00   0.000000E+00   0.000000E+00   0.000000E+00   0.000000E+00   0.000000E+00   0.000000E+00   0.000000E+00   0.000000E+00   0.000000E+00   0.000000E+00   0.000000E+00   0.000000E+00   0.000000E+00   2.000000E+00   3.500000E+00   4.000000E+00   0.000000E+00   3.500000E+00   3.400000E+01   4.050000E+01   9.050000E+01   2.290000E+02   2.590000E+02   3.655000E+02   4.560000E+02   4.610000E+02   3.785000E+02   4.750000E+02   5.805000E+02   5.675000E+02   4.940000E+02   4.120000E+02   1.610000E+02   7.750000E+01   1.150000E+02   1.940000E+02   1.445000E+02   1.320000E+02   6.150000E+01   3.700000E+01   1.860000E+02   9.250000E+01   1.600000E+01   5.000000E+00   1.000000E+01   8.700000E+01   0.000000E+00   0.000000E+00   0.000000E+00   0.000000E+00   0.000000E+00   0.000000E+00   0.000000E+00   0.000000E+00   0.000000E+00   0.000000E+00   0.000000E+00   0.000000E+00   0.000000E+00   0.000000E+00   0.000000E+00   0.000000E+00
   6.300000E+01   3.300000E+01   1.800000E+01   8.000000E+00   5.500000E+00   0.000000E+00   0.000000E+00   0.000000E+00   0.000000E+00   0.000000E+00   0.000000E+00   0.000000E+00   0.000000E+00   0.000000E+00   0.000000E+00   0.000000E+00   0.000000E+00   0.000000E+00   1.000000E+00   2.000000E+00   3.000000E+00   5.000000E+00   3.000000E+00   4.000000E+00   4.000000E+00   0.000000E+00   1.250000E+01   2.350000E+01   6.900000E+01   9.500000E+01   2.375000E+02   3.270000E+02   3.175000E+02   4.675000E+02   3.300000E+02   4.400000E+02   5.560000E+02   6.535000E+02   5.300000E+02   4.255000E+02   1.595000E+02   8.900000E+01   1.590000E+02   2.240000E+02   1.445000E+02   9.500000E+01   1.190000E+02   5.350000E+01   1.105000E+02   3.450000E+01   3.150000E+01   5.000000E+00   0.000000E+00   9.350000E+01   0.000000E+00   0.000000E+00   0.000000E+00   0.000000E+00   0.000000E+00   0.000000E+00   0.000000E+00   0.000000E+00   0.000000E+00   0.000000E+00   0.000000E+00   0.000000E+00   0.000000E+00   0.000000E+00   0.000000E+00   0.000000E+00
   8.550000E+01   6.450000E+01   4.050000E+01   2.850000E+01   5.000000E+00   0.000000E+00   0.000000E+00   0.000000E+00   0.000000E+00   0.000000E+00   0.000000E+00   0.000000E+00   0.000000E+00   0.000000E+00   0.000000E+00   0.000000E+00   1.500000E+00   4.000000E+00   5.500000E+00   4.500000E+00   2.500000E+00   2.000000E+00   2.500000E+00   2.500000E+00   4.000000E+00   1.000000E+00   3.500000E+00   6.000000E+00   2.450000E+01   7.950000E+01   1.635000E+02   2.395000E+02   2.685000E+02   2.920000E+02   2.525000E+02   4.295000E+02   4.325000E+02   4.950000E+02   5.595000E+02   2.445000E+02   1.400000E+02   1.425000E+02   2.435000E+02   2.980000E+02   1.715000E+02   1.145000E+02   9.050000E+01   1.110000E+02   4.500000E+01   4.000000E+01   5.750000E+01   4.500000E+00   0.000000E+00   9.250000E+01   0.000000E+00   0.000000E+00   0.000000E+00   0.000000E+00   0.000000E+00   0.000000E+00   0.000000E+00   0.000000E+00   0.000000E+00   0.000000E+00   0.000000E+00   0.000000E+00   0.000000E+00   0.000000E+00   0.000000E+00   0.000000E+00
   1.285000E+02   1.215000E+02   9.950000E+01   3.550000E+01   2.000000E+01   3.000000E+00   2.000000E+00   0.000000E+00   0.000000E+00   0.000000E+00   0.000000E+00   0.000000E+00   0.000000E+00   1.000000E+00   2.000000E+00   3.000000E+00   5.500000E+00   4.000000E+00   3.000000E+00   3.000000E+00   0.000000E+00   3.000000E+00   4.500000E+00   3.500000E+00   4.500000E+00   1.000000E+00   4.000000E+00   5.500000E+00   7.500000E+00   3.100000E+01   6.850000E+01   1.910000E+02   1.655000E+02   1.420000E+02   2.460000E+02   3.600000E+02   2.320000E+02   5.245000E+02   4.330000E+02   2.205000E+02   1.710000E+02   2.365000E+02   3.455000E+02   2.090000E+02   1.390000E+02   1.105000E+02   1.335000E+02   1.775000E+02   1.125000E+02   7.400000E+01   4.550000E+01   1.100000E+01   0.000000E+00   1.200000E+01   3.600000E+01   0.000000E+00   0.000000E+00   0.000000E+00   0.000000E+00   0.000000E+00   0.000000E+00   0.000000E+00   0.000000E+00   0.000000E+00   0.000000E+00   0.000000E+00   0.000000E+00   0.000000E+00   0.000000E+00   0.000000E+00
   1.175000E+02   1.425000E+02   9.600000E+01   6.200000E+01   2.500000E+01   5.000000E+00   3.000000E+00   3.500000E+00   5.000000E+00   4.000000E+00   4.000000E+00   4.000000E+00   5.000000E+00   4.500000E+00   5.000000E+00   4.500000E+00   3.500000E+00   3.500000E+00   3.000000E+00   3.000000E+00   2.500000E+00   4.000000E+00   4.000000E+00   4.500000E+00   4.000000E+00   1.000000E+00   3.500000E+00   5.000000E+00   4.500000E+00   6.500000E+00   1.250000E+01   1.125000E+02   1.130000E+02   1.070000E+02   2.175000E+02   1.660000E+02   2.150000E+02   3.635000E+02   3.890000E+02   2.755000E+02   1.950000E+02   2.815000E+02   4.240000E+02   2.770000E+02   1.555000E+02   1.400000E+02   1.370000E+02   2.410000E+02   1.375000E+02   1.230000E+02   3.500000E+01   1.500000E+01   7.000000E+00   0.000000E+00   0.000000E+00   0.000000E+00   0.000000E+00   0.000000E+00   0.000000E+00   0.000000E+00   0.000000E+00   0.000000E+00   0.000000E+00   0.000000E+00   0.000000E+00   0.000000E+00   0.000000E+00   0.000000E+00   0.000000E+00   0.000000E+00
   1.285000E+02   1.845000E+02   1.535000E+02   1.070000E+02   5.150000E+01   5.000000E+00   5.000000E+00   4.000000E+00   3.000000E+00   3.500000E+00   4.000000E+00   4.000000E+00   4.000000E+00   3.000000E+00   2.500000E+00   3.500000E+00   3.000000E+00   3.000000E+00   4.000000E+00   3.000000E+00   3.000000E+00   4.500000E+00   4.000000E+00   4.000000E+00   4.000000E+00   4.500000E+00   3.000000E+00   4.500000E+00   5.000000E+00   5.000000E+00   6.500000E+00   1.600000E+01   2.750000E+01   4.050000E+01   7.300000E+01   1.440000E+02   2.080000E+02   5.290000E+02   3.330000E+02   2.220000E+02   1.615000E+02   2.640000E+02   3.130000E+02   2.425000E+02   1.785000E+02   1.895000E+02   2.235000E+02   3.215000E+02   2.030000E+02   1.265000E+02   7.850000E+01   5.400000E+01   8.500000E+00   4.500000E+00   0.000000E+00   0.000000E+00   0.000000E+00   0.000000E+00   0.000000E+00   0.000000E+00   0.000000E+00   0.000000E+00   0.000000E+00   0.000000E+00   0.000000E+00   0.000000E+00   0.000000E+00   0.000000E+00   0.000000E+00   0.000000E+00
   1.390000E+02   2.110000E+02   2.525000E+02   1.645000E+02   5.350000E+01   8.500000E+00   5.000000E+00   4.500000E+00   5.000000E+00   4.000000E+00   4.500000E+00   3.500000E+00   3.000000E+00   3.500000E+00   4.500000E+00   4.000000E+00   3.000000E+00   4.000000E+00   3.500000E+00   3.000000E+00   3.000000E+00   4.000000E+00   4.000000E+00   5.000000E+00   5.000000E+00   5.000000E+00   3.500000E+00   3.500000E+00   5.500000E+00   4.500000E+00   4.500000E+00   1.050000E+01   1.950000E+01   4.750000E+01   6.100000E+01   1.385000E+02   2.845000E+02   4.895000E+02   4.220000E+02   3.315000E+02   1.790000E+02   1.990000E+02   2.330000E+02   2.570000E+02   2.080000E+02   2.710000E+02   3.225000E+02   2.995000E+02   8.150000E+01   5.050000E+01   1.600000E+01   7.000000E+00   1.400000E+01   1.050000E+01   0.000000E+00   0.000000E+00   0.000000E+00   0.000000E+00   0.000000E+00   0.000000E+00   0.000000E+00   0.000000E+00   0.000000E+00   0.000000E+00   0.000000E+00   0.000000E+00   0.000000E+00   0.000000E+00   0.000000E+00   0.000000E+00
   1.205000E+02   1.580000E+02   1.845000E+02   1.620000E+02   7.450000E+01   3.250000E+01   5.500000E+00   4.500000E+00   4.500000E+00   4.500000E+00   3.500000E+00   3.500000E+00   4.000000E+00   5.000000E+00   3.000000E+00   3.500000E+00   3.000000E+00   2.500000E+00   3.500000E+00   3.000000E+00   4.000000E+00   5.000000E+00   4.000000E+00   3.500000E+00   3.000000E+00   5.000000E+00   2.000000E+00   3.000000E+00   2.000000E+00   3.000000E+00   3.500000E+00   7.000000E+00   9.500000E+00   2.950000E+01   5.100000E+01   1.035000E+02   2.085000E+02   3.750000E+02   3.570000E+02   3.275000E+02   2.140000E+02   2.070000E+02   2.935000E+02   3.485000E+02   2.875000E+02   2.350000E+02   3.045000E+02   1.010000E+02   3.900000E+01   2.100000E+01   6.550000E+01   6.000000E+00   3.200000E+01   0.000000E+00   0.000000E+00   0.000000E+00   0.000000E+00   0.000000E+00   0.000000E+00   0.000000E+00   0.000000E+00   0.000000E+00   0.000000E+00   0.000000E+00   0.000000E+00   0.000000E+00   0.000000E+00   0.000000E+00   0.000000E+00   0.000000E+00
   1.350000E+02   1.070000E+02   1.070000E+02   1.185000E+02   1.195000E+02   4.600000E+01   7.000000E+00   5.000000E+00   5.000000E+00   5.000000E+00   3.500000E+00   5.000000E+00   3.500000E+00   3.500000E+00   3.500000E+00   3.500000E+00   4.500000E+00   4.000000E+00   3.000000E+00   3.500000E+00   3.500000E+00   5.000000E+00   4.500000E+00   4.000000E+00   3.500000E+00   5.000000E+00   3.000000E+00   3.000000E+00   3.500000E+00   3.500000E+00   4.000000E+00   5.000000E+00   5.000000E+00   2.100000E+01   4.150000E+01   1.115000E+02   1.310000E+02   1.790000E+02   2.340000E+02   3.420000E+02   2.880000E+02   2.485000E+02   3.075000E+02   3.770000E+02   4.145000E+02   3.230000E+02   3.650000E+02   1.345000E+02   5.550000E+01   4.750000E+01   2.350000E+01   5.000000E+00   6.200000E+01   1.005000E+02   3.300000E+01   0.000000E+00   0.000000E+00   0.000000E+00   0.000000E+00   0.000000E+00   0.000000E+00   0.000000E+00   0.000000E+00   0.000000E+00   0.000000E+00   0.000000E+00   0.000000E+00   0.000000E+00   0.000000E+00   0.000000E+00
   5.750000E+01   6.600000E+01   8.750000E+01   1.355000E+02   1.265000E+02   5.300000E+01   1.600000E+01   6.500000E+00   5.500000E+00   5.000000E+00   5.000000E+00   5.000000E+00   3.500000E+00   3.500000E+00   2.500000E+00   1.500000E+00   3.000000E+00   4.000000E+00   3.000000E+00   3.000000E+00   2.000000E+00   5.000000E+00   4.000000E+00   5.000000E+00   4.000000E+00   4.000000E+00   5.000000E+00   2.500000E+00   4.000000E+00   3.000000E+00   5.000000E+00   5.000000E+00   7.000000E+00   1.050000E+01   2.300000E+01   3.450000E+01   8.250000E+01   1.995000E+02   3.160000E+02   3.765000E+02   3.605000E+02   2.930000E+02   3.335000E+02   3.565000E+02   4.125000E+02   3.955000E+02   2.540000E+02   8.950000E+01   1.350000E+02   4.650000E+01   1.150000E+01   4.500000E+00   1.450000E+01   9.450000E+01   1.300000E+01   0.000000E+00   0.000000E+00   0.000000E+00   0.000000E+00   0.000000E+00   0.000000E+00   0.000000E+00   0.000000E+00   0.000000E+00   0.000000E+00   0.000000E+00   0.000000E+00   0.000000E+00   0.000000E+00   0.000000E+00
   4.900000E+01   5.250000E+01   8.350000E+01   1.205000E+02   1.000000E+02   3.400000E+01   1.100000E+01   9.000000E+00   7.000000E+00   1.500000E+01   6.500000E+00   5.500000E+00   5.000000E+00   5.500000E+00   4.000000E+00   3.500000E+00   3.000000E+00   4.000000E+00   2.500000E+00   3.500000E+00   3.000000E+00   3.500000E+00   4.500000E+00   4.000000E+00   5.000000E+00   4.500000E+00   4.500000E+00   4.500000E+00   1.000000E+00   4.500000E+00   3.000000E+00   5.000000E+00   4.500000E+00   7.000000E+00   1.700000E+01   8.650000E+01   1.600000E+02   2.675000E+02   3.190000E+02   2.220000E+02   2.580000E+02   2.150000E+02   2.300000E+02   3.880000E+02   4.040000E+02   3.100000E+02   1.790000E+02   1.825000E+02   1.225000E+02   4.050000E+01   1.115000E+02   4.250000E+01   1.050000E+01   2.600000E+01   8.000000E+01   0.000000E+00   0.000000E+00   0.000000E+00   0.000000E+00   0.000000E+00   0.000000E+00   0.000000E+00   0.000000E+00   0.000000E+00   0.000000E+00   0.000000E+00   0.000000E+00   0.000000E+00   0.000000E+00   0.000000E+00
   5.500000E+01   5.200000E+01   5.300000E+01   3.850000E+01   3.600000E+01   2.800000E+01   1.900000E+01   1.600000E+01   2.050000E+01   5.750000E+01   2.900000E+01   4.000000E+00   6.000000E+00   4.500000E+00   5.000000E+00   4.500000E+00   3.000000E+00   3.000000E+00   4.500000E+00   4.000000E+00   3.000000E+00   4.000000E+00   5.000000E+00   4.500000E+00   4.500000E+00   5.000000E+00   5.000000E+00   4.500000E+00   3.500000E+00   2.500000E+00   3.000000E+00   4.000000E+00   4.500000E+00   6.000000E+00   3.800000E+01   1.025000E+02   1.680000E+02   2.760000E+02   3.005000E+02   1.725000E+02   1.165000E+02   1.975000E+02   2.855000E+02   4.315000E+02   4.335000E+02   4.110000E+02   3.180000E+02   3.145000E+02   1.110000E+02   7.350000E+01   1.365000E+02   8.250000E+01   7.550000E+01   1.250000E+01   7.800000E+01   0.000000E+00   0.000000E+00   0.000000E+00   0.000000E+00   0.000000E+00   0.000000E+00   0.000000E+00   0.000000E+00   0.000000E+00   0.000000E+00   0.000000E+00   0.000000E+00   0.000000E+00   0.000000E+00   0.000000E+00
   7.800000E+01   5.500000E+01   5.950000E+01   4.800000E+01   6.450000E+01   4.850000E+01   3.100000E+01   3.050000E+01   2.050000E+01   2.550000E+01   1.100000E+01   6.000000E+00   6.000000E+00   6.000000E+00   5.000000E+00   5.000000E+00   4.500000E+00   3.000000E+00   3.500000E+00   3.500000E+00   2.500000E+00   4.000000E+00   5.000000E+00   6.500000E+00   5.000000E+00   6.000000E+00   4.500000E+00   5.000000E+00   3.500000E+00   4.500000E+00   3.500000E+00   4.000000E+00   4.500000E+00   3.800000E+01   1.450000E+01   2.650000E+01   7.400000E+01   1.600000E+02   1.160000E+02   5.300000E+01   1.010000E+02   2.230000E+02   2.335000E+02   2.650000E+02   5.015000E+02   5.120000E+02   4.130000E+02   2.515000E+02   1.310000E+02   1.140000E+02   1.755000E+02   1.445000E+02   8.400000E+01   2.050000E+01   6.950000E+01   0.000000E+00   0.000000E+00   0.000000E+00   0.000000E+00   0.000000E+00   0.000000E+00   0.000000E+00   0.000000E+00   0.000000E+00   0.000000E+00   0.000000E+00   0.000000E+00   0.000000E+00   0.000000E+00   0.000000E+00
   8.100000E+01   6.850000E+01   5.700000E+01   5.100000E+01   6.950000E+01   1.350000E+02   1.170000E+02   7.050000E+01   2.950000E+01   2.350000E+01   2.200000E+01   9.500000E+00   8.000000E+00   6.500000E+00   6.000000E+00   6.500000E+00   6.000000E+00   4.500000E+00   3.000000E+00   3.500000E+00   4.000000E+00   4.500000E+00   4.500000E+00   6.000000E+00   5.500000E+00   4.500000E+00   5.000000E+00   4.500000E+00   3.000000E+00   3.000000E+00   4.500000E+00   3.000000E+00   6.000000E+00   8.500000E+00   1.050000E+01   1.600000E+01   1.800000E+01   2.350000E+01   3.550000E+01   4.600000E+01   6.550000E+01   9.350000E+01   1.355000E+02   1.685000E+02   2.830000E+02   3.940000E+02   4.685000E+02   2.875000E+02   2.070000E+02   1.185000E+02   1.910000E+02   8.450000E+01   4.600000E+01   4.250000E+01   8.000000E+00   5.000000E+00   0.000000E+00   0.000000E+00   0.000000E+00   0.000000E+00   0.000000E+00   0.000000E+00   0.000000E+00   0.000000E+00   0.000000E+00   0.000000E+00   0.000000E+00   0.000000E+00   0.000000E+00   0.000000E+00
   9.350000E+01   1.090000E+02   5.300000E+01   6.100000E+01   1.060000E+02   9.200000E+01   1.195000E+02   5.950000E+01   3.950000E+01   3.350000E+01   2.300000E+01   7.500000E+00   8.000000E+00   8.000000E+00   9.000000E+00   7.000000E+00   7.000000E+00   5.000000E+00   5.000000E+00   3.000000E+00   4.000000E+00   4.000000E+00   4.000000E+00   5.500000E+00   6.500000E+00   4.500000E+00   4.500000E+00   4.000000E+00   4.000000E+00   4.000000E+00   3.500000E+00   5.000000E+00   5.000000E+00   6.500000E+00   1.900000E+01   1.550000E+01   1.750000E+01   2.700000E+01   4.650000E+01   1.145000E+02   7.550000E+01   7.250000E+01   1.585000E+02   2.945000E+02   3.105000E+02   3.920000E+02   3.765000E+02   2.370000E+02   1.480000E+02   1.970000E+02   1.020000E+02   1.040000E+02   8.400000E+01   9.850000E+01   3.950000E+01   1.400000E+01   0.000000E+00   0.000000E+00   0.000000E+00   0.000000E+00   0.000000E+00   0.000000E+00   0.000000E+00   0.000000E+00   0.000000E+00   0.000000E+00   0.000000E+00   0.000000E+00   0.000000E+00   0.000000E+00
   8.650000E+01   1.045000E+02   6.200000E+01   9.050000E+01   1.120000E+02   1.205000E+02   1.580000E+02   1.040000E+02   5.950000E+01   5.200000E+01   2.850000E+01   1.700000E+01   9.000000E+00   9.000000E+00   1.000000E+01   6.000000E+00   7.000000E+00   6.000000E+00   5.000000E+00   2.500000E+00   3.500000E+00   3.500000E+00   4.500000E+00   4.500000E+00   4.500000E+00   5.000000E+00   5.500000E+00   4.000000E+00   5.000000E+00   3.500000E+00   2.000000E+00   4.500000E+00   4.000000E+00   6.000000E+00   1.050000E+01   7.750000E+01   1.050000E+02   1.090000E+02   1.025000E+02   8.600000E+01   2.070000E+02   2.115000E+02   1.210000E+02   2.115000E+02   3.715000E+02   5.885000E+02   3.880000E+02   2.675000E+02   2.465000E+02   2.645000E+02   1.835000E+02   1.425000E+02   1.220000E+02   1.140000E+02   5.200000E+01   9.700000E+01   3.000000E+00   0.000000E+00   0.000000E+00   0.000000E+00   0.000000E+00   0.000000E+00   0.000000E+00   0.000000E+00   0.000000E+00   0.000000E+00   0.000000E+00   0.000000E+00   0.000000E+00   0.000000E+00