# Name file for MODFLOW-NWT, generated by Flopy version 3.2.9.
#xul:1802000; yul:5892000; rotation:0; proj4_str:+init=EPSG:2193; units:meters; lenuni:2; length_multiplier:1.0 ;start_datetime:15-01-1954
LIST               7  BH.lst
DIS               29  BH.dis 
BAS6              28  BH.bas 